k23/sourcebus_22000.trafo_75621868_75621868/Loads.dss
New Load.75628429_nmi_elem_75628429 bus1=3106352.3 kV=0.23094010767585033 Vminpu=0.7 Vmaxpu=1.3 model=1 kW=0.0 kvar=0.0 Phases=1
New Load.75628437_nmi_elem_75628437 bus1=3106340.1 kV=0.23094010767585033 Vminpu=0.7 Vmaxpu=1.3 model=1 kW=0.0 kvar=0.0 Phases=1
New Load.75628439_nmi_elem_75628439 bus1=3109443.3 kV=0.23094010767585033 Vminpu=0.7 Vmaxpu=1.3 model=1 kW=0.0 kvar=0.0 Phases=1
New Load.75628442_nmi_elem_75628442 bus1=3109445.2 kV=0.23094010767585033 Vminpu=0.7 Vmaxpu=1.3 model=1 kW=0.0 kvar=0.0 Phases=1
New Load.75628450_nmi_elem_75628450 bus1=3106451.2 kV=0.23094010767585033 Vminpu=0.7 Vmaxpu=1.3 model=1 kW=0.0 kvar=0.0 Phases=1
New Load.75630678_nmi_elem_75630678 bus1=3110225.1 kV=0.23094010767585033 Vminpu=0.7 Vmaxpu=1.3 model=1 kW=0.0 kvar=0.0 Phases=1
New Load.NMI_elem_75621914 bus1=3109311.2 kV=0.23094010767585033 Vminpu=0.7 Vmaxpu=1.3 model=1 kW=2.2788528657199465 kvar=0.4627408106950545 Phases=1
New Load.NMI_elem_75623597 bus1=3107730.1 kV=0.23094010767585033 Vminpu=0.7 Vmaxpu=1.3 model=1 kW=1.3530395658390495 kvar=0.2747464020240919 Phases=1
New Load.NMI_elem_75623608 bus1=3108110.1.2.3 kV=0.4 Vminpu=0.7 Vmaxpu=1.3 model=1 kW=1.7833911326168488 kvar=0.362133014775737 Phases=3
New Load.NMI_elem_75623609 bus1=3106352.3 kV=0.23094010767585033 Vminpu=0.7 Vmaxpu=1.3 model=1 kW=1.1511462475979617 kvar=0.23375021523110187 Phases=1
New Load.NMI_elem_75623610 bus1=3106452.1 kV=0.23094010767585033 Vminpu=0.7 Vmaxpu=1.3 model=1 kW=1.2317264714182055 kvar=0.25011272755362884 Phases=1
New Load.NMI_elem_75623611 bus1=3108215.3 kV=0.23094010767585033 Vminpu=0.7 Vmaxpu=1.3 model=1 kW=1.3530395658390495 kvar=0.2747464020240919 Phases=1
New Load.NMI_elem_75623612 bus1=3107175.3 kV=0.23094010767585033 Vminpu=0.7 Vmaxpu=1.3 model=1 kW=2.479391917903302 kvar=0.5034620020362194 Phases=1
New Load.NMI_elem_75623613 bus1=3107238.3 kV=0.23094010767585033 Vminpu=0.7 Vmaxpu=1.3 model=1 kW=0.9457109442806296 kvar=0.192034797692544 Phases=1
New Load.NMI_elem_75623614 bus1=3109442.2 kV=0.23094010767585033 Vminpu=0.7 Vmaxpu=1.3 model=1 kW=0.7252220988297783 kvar=0.14726262805055618 Phases=1
New Load.NMI_elem_75623616 bus1=3106354.3 kV=0.23094010767585033 Vminpu=0.7 Vmaxpu=1.3 model=1 kW=3.7332558171599297 kvar=0.7580699260366002 Phases=1
New Load.NMI_elem_75623617 bus1=3106340.1 kV=0.23094010767585033 Vminpu=0.7 Vmaxpu=1.3 model=1 kW=0.8173137952597119 kvar=0.1659626445831318 Phases=1
New Load.NMI_elem_75623618 bus1=3106777.3 kV=0.23094010767585033 Vminpu=0.7 Vmaxpu=1.3 model=1 kW=1.43627625735458 kvar=0.29164833311884125 Phases=1
New Load.NMI_elem_75623619 bus1=3109443.3 kV=0.23094010767585033 Vminpu=0.7 Vmaxpu=1.3 model=1 kW=6.32422022274113 kvar=1.2841876879842973 Phases=1
New Load.NMI_elem_75623620 bus1=3109444.3 kV=0.23094010767585033 Vminpu=0.7 Vmaxpu=1.3 model=1 kW=0.14167954027709262 kvar=0.02876925768790788 Phases=1
New Load.NMI_elem_75623621 bus1=3106368.2 kV=0.23094010767585033 Vminpu=0.7 Vmaxpu=1.3 model=1 kW=3.0018353500062065 kvar=0.6095486656160674 Phases=1
New Load.NMI_elem_75623622 bus1=3109445.2 kV=0.23094010767585033 Vminpu=0.7 Vmaxpu=1.3 model=1 kW=2.216399335985106 kvar=0.45005908059523186 Phases=1
New Load.NMI_elem_75623627 bus1=3109447.2 kV=0.23094010767585033 Vminpu=0.7 Vmaxpu=1.3 model=1 kW=1.3530395658390495 kvar=0.2747464020240919 Phases=1
New Load.NMI_elem_75623628 bus1=3108123.2 kV=0.23094010767585033 Vminpu=0.7 Vmaxpu=1.3 model=1 kW=1.183909630665117 kvar=0.24040310391455716 Phases=1
New Load.NMI_elem_75623629 bus1=3109448.2 kV=0.23094010767585033 Vminpu=0.7 Vmaxpu=1.3 model=1 kW=1.2892838344666548 kvar=0.261800248603872 Phases=1
New Load.NMI_elem_75623630 bus1=3106451.2 kV=0.23094010767585033 Vminpu=0.7 Vmaxpu=1.3 model=1 kW=3.826232946523235 kvar=0.7769497373947074 Phases=1
New Load.NMI_elem_75623632 bus1=3109449.1 kV=0.23094010767585033 Vminpu=0.7 Vmaxpu=1.3 model=1 kW=1.344184645372232 kvar=0.2729483337340793 Phases=1
New Load.NMI_elem_75623633 bus1=3109450.1 kV=0.23094010767585033 Vminpu=0.7 Vmaxpu=1.3 model=1 kW=0.16616093193242598 kvar=0.033740416287896355 Phases=1
New Load.NMI_elem_75623634 bus1=3107260.1 kV=0.23094010767585033 Vminpu=0.7 Vmaxpu=1.3 model=1 kW=1.7798492319881907 kvar=0.361413801177983 Phases=1
New Load.NMI_elem_75623635 bus1=3106367.2 kV=0.23094010767585033 Vminpu=0.7 Vmaxpu=1.3 model=1 kW=0.5392677556555819 kvar=0.10950298818652789 Phases=1
New Load.NMI_elem_75623645 bus1=3109454.2 kV=0.23094010767585033 Vminpu=0.7 Vmaxpu=1.3 model=1 kW=0.14949274203022248 kvar=0.030355795971161677 Phases=1
New Load.NMI_elem_75623646 bus1=3109455.2 kV=0.23094010767585033 Vminpu=0.7 Vmaxpu=1.3 model=1 kW=1.7940171722931673 kvar=0.36429072416025404 Phases=1
New Load.NMI_elem_75623647 bus1=3106370.2 kV=0.23094010767585033 Vminpu=0.7 Vmaxpu=1.3 model=1 kW=0.7443384540390102 kvar=0.1511443695355467 Phases=1
New Load.NMI_elem_75623648 bus1=3109456.1 kV=0.23094010767585033 Vminpu=0.7 Vmaxpu=1.3 model=1 kW=0.3896187384009917 kvar=0.07911545917761582 Phases=1
New Load.NMI_elem_75624911 bus1=3109804.3 kV=0.23094010767585033 Vminpu=0.7 Vmaxpu=1.3 model=1 kW=0.8695581384700023 kvar=0.17657131094111664 Phases=1
New Load.NMI_elem_75624919 bus1=3109806.2 kV=0.23094010767585033 Vminpu=0.7 Vmaxpu=1.3 model=1 kW=1.1626577202076518 kvar=0.2360877194411505 Phases=1
New Load.NMI_elem_75624922 bus1=3109807.2 kV=0.23094010767585033 Vminpu=0.7 Vmaxpu=1.3 model=1 kW=0.71813812867729 kvar=0.14582416655942063 Phases=1
New Load.NMI_elem_75624949 bus1=3109814.3 kV=0.23094010767585033 Vminpu=0.7 Vmaxpu=1.3 model=1 kW=0.7438175415919565 kvar=0.15103859375174036 Phases=1
New Load.NMI_elem_75624958 bus1=3109815.2 kV=0.23094010767585033 Vminpu=0.7 Vmaxpu=1.3 model=1 kW=2.8353617980799743 kvar=0.5757447691309414 Phases=1
New Load.NMI_elem_75624959 bus1=3109816.2 kV=0.23094010767585033 Vminpu=0.7 Vmaxpu=1.3 model=1 kW=2.2788528657199465 kvar=0.4627408106950545 Phases=1
New Load.NMI_elem_75624962 bus1=3109819.2 kV=0.23094010767585033 Vminpu=0.7 Vmaxpu=1.3 model=1 kW=1.1360927899120277 kvar=0.2306934802754854 Phases=1
New Load.NMI_elem_75624967 bus1=3109821.2 kV=0.23094010767585033 Vminpu=0.7 Vmaxpu=1.3 model=1 kW=5.045771048259373 kvar=1.0245875109253835 Phases=1
New Load.NMI_elem_75624992 bus1=3109839.3 kV=0.23094010767585033 Vminpu=0.7 Vmaxpu=1.3 model=1 kW=1.443360227507068 kvar=0.2930867946099768 Phases=1
New Load.NMI_elem_75624994 bus1=3109840.2 kV=0.23094010767585033 Vminpu=0.7 Vmaxpu=1.3 model=1 kW=1.058169033787071 kvar=0.2148703867251809 Phases=1
New Load.NMI_elem_75624995 bus1=3109841.1 kV=0.23094010767585033 Vminpu=0.7 Vmaxpu=1.3 model=1 kW=2.1119106495645257 kvar=0.4288417478792623 Phases=1
New Load.NMI_elem_75625049 bus1=3109854.2 kV=0.23094010767585033 Vminpu=0.7 Vmaxpu=1.3 model=1 kW=1.6275436203669356 kvar=0.3304868276751281 Phases=1
New Load.NMI_elem_75625118 bus1=3109881.2 kV=0.23094010767585033 Vminpu=0.7 Vmaxpu=1.3 model=1 kW=1.5274825208511416 kvar=0.3101685548258852 Phases=1
New Load.NMI_elem_75625436 bus1=3110015.3 kV=0.23094010767585033 Vminpu=0.7 Vmaxpu=1.3 model=1 kW=0.5941685665611591 kvar=0.12065107331673512 Phases=1
New Load.NMI_elem_75625691 bus1=3110133.1 kV=0.23094010767585033 Vminpu=0.7 Vmaxpu=1.3 model=1 kW=0.12449048201444234 kvar=0.025278870539534246 Phases=1
New Load.NMI_elem_75625692 bus1=3110134.1 kV=0.23094010767585033 Vminpu=0.7 Vmaxpu=1.3 model=1 kW=0.06979800951153485 kvar=0.01417309032633175 Phases=1
New Load.NMI_elem_75625693 bus1=3110135.1 kV=0.23094010767585033 Vminpu=0.7 Vmaxpu=1.3 model=1 kW=0.24273037729210514 kvar=0.04928850530812137 Phases=1
New Load.NMI_elem_75625694 bus1=3110136.3 kV=0.23094010767585033 Vminpu=0.7 Vmaxpu=1.3 model=1 kW=0.05521334645179741 kvar=0.01121154817962323 Phases=1
New Load.NMI_elem_75625695 bus1=3110137.2 kV=0.23094010767585033 Vminpu=0.7 Vmaxpu=1.3 model=1 kW=0.5995336458519912 kvar=0.12174049913172674 Phases=1
New Load.NMI_elem_75625750 bus1=3110158.2 kV=0.23094010767585033 Vminpu=0.7 Vmaxpu=1.3 model=1 kW=0.6521426039311953 kvar=0.13242320369664037 Phases=1
New Load.NMI_elem_75625858 bus1=3110225.1 kV=0.23094010767585033 Vminpu=0.7 Vmaxpu=1.3 model=1 kW=2.4360025796074147 kvar=0.49465142111606075 Phases=1
New Load.NMI_elem_75625888 bus1=3110248.1 kV=0.23094010767585033 Vminpu=0.7 Vmaxpu=1.3 model=1 kW=1.5464946925774616 kvar=0.3140291409523754 Phases=1
New Load.NMI_elem_75625961 bus1=3110282.2 kV=0.23094010767585033 Vminpu=0.7 Vmaxpu=1.3 model=1 kW=4.388523816293368 kvar=0.8911277682969598 Phases=1
New Load.NMI_elem_75626118 bus1=3110363.2 kV=0.23094010767585033 Vminpu=0.7 Vmaxpu=1.3 model=1 kW=0.23491718733679973 kvar=0.047701969420518 Phases=1
New Load.NMI_elem_75626298 bus1=3106353.2 kV=0.23094010767585033 Vminpu=0.7 Vmaxpu=1.3 model=1 kW=2.2788528657199465 kvar=0.4627408106950545 Phases=1
New Load.NMI_elem_75626421 bus1=3110465.2 kV=0.23094010767585033 Vminpu=0.7 Vmaxpu=1.3 model=1 kW=2.2788528657199465 kvar=0.4627408106950545 Phases=1
New Load.NMI_elem_75626540 bus1=3107207.3 kV=0.23094010767585033 Vminpu=0.7 Vmaxpu=1.3 model=1 kW=2.2788528657199465 kvar=0.4627408106950545 Phases=1
New Load.NMI_elem_75626685 bus1=3107097.3 kV=0.23094010767585033 Vminpu=0.7 Vmaxpu=1.3 model=1 kW=2.2788528657199465 kvar=0.4627408106950545 Phases=1
New Load.NMI_elem_75626691 bus1=3106824.3 kV=0.23094010767585033 Vminpu=0.7 Vmaxpu=1.3 model=1 kW=2.2788528657199465 kvar=0.4627408106950545 Phases=1
